tests/data/state_estimation/sensor-update-il/sym_output_batch.json
{
  "version": "1.0",
  "type": "sym_output",
  "is_batch": true,
  "attributes": {},
  "data": [
    {
      "node": [
        {
          "id": 0,
          "energized": 0,
          "u_pu": 0,
          "u": 0,
          "u_angle": 0,
          "p": 0,
          "q": 0
        },
        {
          "id": 1,
          "energized": 1,
          "u_pu": 1.016856066759315,
          "u": 20337.12133518629,
          "u_angle": -0.00588802,
          "p": 1204413.206899185,
          "q": -2091970.044814419
        },
        {
          "id": 2,
          "energized": 1,
          "u_pu": 1.017598387170136,
          "u": 20351.96774340271,
          "u_angle": -0.00741331,
          "p": -1203287.874455313,
          "q": 534396.6611528599
        },
        {
          "id": 3,
          "energized": 0,
          "u_pu": 0,
          "u": 0,
          "u_angle": 0,
          "p": 0,
          "q": 0
        },
        {
          "id": 4,
          "energized": 0,
          "u_pu": 0,
          "u": 0,
          "u_angle": 0,
          "p": 0,
          "q": 0
        },
        {
          "id": 5,
          "energized": 0,
          "u_pu": 0,
          "u": 0,
          "u_angle": 0,
          "p": 0,
          "q": 0
        },
        {
          "id": 6,
          "energized": 0,
          "u_pu": 0,
          "u": 0,
          "u_angle": 0,
          "p": 0,
          "q": 0
        }
      ],
      "line": [
        {
          "id": 7,
          "energized": 1,
          "loading": 0.04883339598162564,
          "p_from": 595216.6907414331,
          "q_from": -620845.0132386544,
          "i_from": 24.41669799081282,
          "s_from": 860076.4148611958,
          "p_to": -595099.5276700356,
          "q_to": 101893.8760705976,
          "i_to": 17.12762353973427,
          "s_to": 603759.7285458759
        },
        {
          "id": 8,
          "energized": 1,
          "loading": 0.0445062225204312,
          "p_from": 327117.4464727216,
          "q_from": -712346.338631644,
          "i_from": 22.2531112602156,
          "s_from": 783864.2292825606,
          "p_to": -326665.2119423663,
          "q_to": 193052.6673886678,
          "i_to": 10.76423788920655,
          "s_to": 379446.2980175596
        },
        {
          "id": 9,
          "energized": 1,
          "loading": 0.04596259223770999,
          "p_from": 282079.0696849592,
          "q_from": -758778.6929440049,
          "i_from": 22.98129611885499,
          "s_from": 809514.488085386,
          "p_to": -281523.1348428322,
          "q_to": 239450.1176935939,
          "i_to": 10.48443466520908,
          "s_to": 369583.0546916504
        },
        {
          "id": 10,
          "energized": 0,
          "loading": 0,
          "p_from": 0,
          "q_from": 0,
          "i_from": 0,
          "s_from": 0,
          "p_to": 0,
          "q_to": 0,
          "i_to": 0,
          "s_to": 0
        },
        {
          "id": 11,
          "energized": 0,
          "loading": 0,
          "p_from": 0,
          "q_from": 0,
          "i_from": 0,
          "s_from": 0,
          "p_to": 0,
          "q_to": 0,
          "i_to": 0,
          "s_to": 0
        }
      ],
      "link": [
        {
          "id": 12,
          "energized": 0,
          "loading": 0,
          "p_from": 0,
          "q_from": 0,
          "i_from": 0,
          "s_from": 0,
          "p_to": 0,
          "q_to": 0,
          "i_to": 0,
          "s_to": 0
        },
        {
          "id": 13,
          "energized": 0,
          "loading": 0,
          "p_from": 0,
          "q_from": 0,
          "i_from": 0,
          "s_from": 0,
          "p_to": 0,
          "q_to": 0,
          "i_to": 0,
          "s_to": 0
        }
      ],
      "source": [
        {
          "id": 14,
          "energized": 1,
          "p": 1204413.206899185,
          "q": -2091970.044814419,
          "i": 68.52839064662854,
          "s": 2413907.587575387,
          "pf": 0.4989475210643585
        }
      ],
      "sym_load": [
        {
          "id": 15,
          "energized": 1,
          "p": -1398356.062772343,
          "q": 167801.66942357,
          "i": 39.95354487424834,
          "s": 1408388.113608428,
          "pf": -0.9928769273617469
        },
        {
          "id": 16,
          "energized": 1,
          "p": 2601643.937227657,
          "q": -702198.3305764298,
          "i": 76.44518484362567,
          "s": 2694741.856203994,
          "pf": 0.965452008413347
        },
        {
          "id": 17,
          "energized": 0,
          "p": 0,
          "q": 0,
          "i": 0,
          "s": 0,
          "pf": 0
        },
        {
          "id": 18,
          "energized": 0,
          "p": 0,
          "q": 0,
          "i": 0,
          "s": 0,
          "pf": 0
        }
      ],
      "sym_power_sensor": [
        {
          "id": 21,
          "energized": 1,
          "p_residual": -601643.9372276567,
          "q_residual": 132198.33057643
        },
        {
          "id": 22,
          "energized": 1,
          "p_residual": -601643.9372276565,
          "q_residual": 132198.3305764299
        },
        {
          "id": 23,
          "energized": 1,
          "p_residual": -1404900.472329964,
          "q_residual": 178106.1239294023
        },
        {
          "id": 24,
          "energized": 1,
          "p_residual": 3326665.211942366,
          "q_residual": -593052.6673886678
        },
        {
          "id": 25,
          "energized": 1,
          "p_residual": -1718476.865157168,
          "q_residual": 160549.882306406
        }
      ],
      "sym_voltage_sensor": [
        {
          "id": 19,
          "energized": 0,
          "u_residual": 0,
          "u_angle_residual": 0
        },
        {
          "id": 20,
          "energized": 1,
          "u_residual": -351.9677434027146,
          "u_angle_residual": 0.007413305340419221
        }
      ]
    },
    {
      "node": [
        {
          "id": 0,
          "energized": 0,
          "u_pu": 0,
          "u": 0,
          "u_angle": 0,
          "p": 0,
          "q": 0
        },
        {
          "id": 1,
          "energized": 1,
          "u_pu": 1.021160371489411,
          "u": 20423.20742978822,
          "u_angle": -0.01687206,
          "p": -557350.7050741836,
          "q": -1384262.457840845
        },
        {
          "id": 2,
          "energized": 1,
          "u_pu": 1.021893986678029,
          "u": 20437.87973356057,
          "u_angle": -0.01659576,
          "p": 557585.7323375798,
          "q": -188741.75841289
        },
        {
          "id": 3,
          "energized": 0,
          "u_pu": 0,
          "u": 0,
          "u_angle": 0,
          "p": 0,
          "q": 0
        },
        {
          "id": 4,
          "energized": 0,
          "u_pu": 0,
          "u": 0,
          "u_angle": 0,
          "p": 0,
          "q": 0
        },
        {
          "id": 5,
          "energized": 0,
          "u_pu": 0,
          "u": 0,
          "u_angle": 0,
          "p": 0,
          "q": 0
        },
        {
          "id": 6,
          "energized": 0,
          "u_pu": 0,
          "u": 0,
          "u_angle": 0,
          "p": 0,
          "q": 0
        }
      ],
      "line": [
        {
          "id": 7,
          "energized": 1,
          "loading": 0.03199634553939745,
          "p_from": -143857.8987641422,
          "q_from": -547330.0897437728,
          "i_from": 15.99817276969872,
          "s_from": 565919.8902457489,
          "p_to": 143882.3684363607,
          "q_to": 23045.4733916594,
          "i_to": 4.116343071390573,
          "s_to": 145716.264674546
        },
        {
          "id": 8,
          "energized": 1,
          "loading": 0.02659605586378697,
          "p_from": -195318.162253929,
          "q_from": -427938.7393162349,
          "i_from": 13.29802793189349,
          "s_from": 470404.8778592975,
          "p_to": 195412.6120715364,
          "q_to": -96417.41575906395,
          "i_to": 6.155592993482622,
          "s_to": 217904.5823709932
        },
        {
          "id": 9,
          "energized": 1,
          "loading": 0.02620832940996184,
          "p_from": -218174.6440561206,
          "q_from": -408993.6287808958,
          "i_from": 13.10416470498092,
          "s_from": 463547.1536881443,
          "p_to": 218290.7518296681,
          "q_to": -115369.8160454852,
          "i_to": 6.974767598339325,
          "s_to": 246902.9096400665
        },
        {
          "id": 10,
          "energized": 0,
          "loading": 0,
          "p_from": 0,
          "q_from": 0,
          "i_from": 0,
          "s_from": 0,
          "p_to": 0,
          "q_to": 0,
          "i_to": 0,
          "s_to": 0
        },
        {
          "id": 11,
          "energized": 0,
          "loading": 0,
          "p_from": 0,
          "q_from": 0,
          "i_from": 0,
          "s_from": 0,
          "p_to": 0,
          "q_to": 0,
          "i_to": 0,
          "s_to": 0
        }
      ],
      "link": [
        {
          "id": 12,
          "energized": 0,
          "loading": 0,
          "p_from": 0,
          "q_from": 0,
          "i_from": 0,
          "s_from": 0,
          "p_to": 0,
          "q_to": 0,
          "i_to": 0,
          "s_to": 0
        },
        {
          "id": 13,
          "energized": 0,
          "loading": 0,
          "p_from": 0,
          "q_from": 0,
          "i_from": 0,
          "s_from": 0,
          "p_to": 0,
          "q_to": 0,
          "i_to": 0,
          "s_to": 0
        }
      ],
      "source": [
        {
          "id": 14,
          "energized": 1,
          "p": -557350.7050741836,
          "q": -1384262.457840845,
          "i": 42.18501531778093,
          "s": 1492254.120662519,
          "pf": -0.3734958391850414
        }
      ],
      "sym_load": [
        {
          "id": 15,
          "energized": 1,
          "p": -882724.4326039901,
          "q": -107929.8206230904,
          "i": 25.12181086646697,
          "s": 889298.1896393182,
          "pf": -0.9926079271138579
        },
        {
          "id": 16,
          "energized": 1,
          "p": 325138.7002664102,
          "q": 296671.5790359805,
          "i": 12.43371980259166,
          "s": 440146.7939433759,
          "pf": 0.7387051427852472
        },
        {
          "id": 17,
          "energized": 0,
          "p": 0,
          "q": 0,
          "i": 0,
          "s": 0,
          "pf": 0
        },
        {
          "id": 18,
          "energized": 0,
          "p": 0,
          "q": 0,
          "i": 0,
          "s": 0,
          "pf": 0
        }
      ],
      "sym_power_sensor": [
        {
          "id": 21,
          "energized": 1,
          "p_residual": -1117275.56739601,
          "q_residual": 147929.8206230904
        },
        {
          "id": 22,
          "energized": 1,
          "p_residual": -25138.70026641024,
          "q_residual": 3328.420964019529
        },
        {
          "id": 23,
          "energized": 1,
          "p_residual": -2143882.368436361,
          "q_residual": -3045.473391659403
        },
        {
          "id": 24,
          "energized": 1,
          "p_residual": 2804587.387928464,
          "q_residual": -373582.584240936
        },
        {
          "id": 25,
          "energized": 1,
          "p_residual": -2218290.751829668,
          "q_residual": 315369.8160454852
        }
      ],
      "sym_voltage_sensor": [
        {
          "id": 19,
          "energized": 0,
          "u_residual": 0,
          "u_angle_residual": 0
        },
        {
          "id": 20,
          "energized": 1,
          "u_residual": -437.8797335605755,
          "u_angle_residual": 0.0165957556764212
        }
      ]
    }
  ]
}
